data_image0
_chemical_formula_structural       Zn2O2Zn2O2Zn2O2Zn2O2Zn2O2Zn2O2Zn2O2Zn2O2Zn2O2Zn2O2Zn2O2Zn2O2Zn2O2Zn2O2Zn2O2Zn2O2Zn2O2Zn2O2Zn2O2Zn2O2Zn2O2Zn2O2Zn2O2Zn2O2Zn2O2Zn2O2Zn2O2
_chemical_formula_sum              "Zn54 O54"
_cell_length_a       9.809075145
_cell_length_b       9.809075144942364
_cell_length_c       15.835362426
_cell_angle_alpha    90.0
_cell_angle_beta     90.0
_cell_angle_gamma    119.9999999900773

_space_group_name_H-M_alt    "P 1"
_space_group_IT_number       1

loop_
  _space_group_symop_operation_xyz
  'x, y, z'

loop_
  _atom_site_type_symbol
  _atom_site_label
  _atom_site_symmetry_multiplicity
  _atom_site_fract_x
  _atom_site_fract_y
  _atom_site_fract_z
  _atom_site_occupancy
  Zn  Zn1       1.0  0.22222222220000004  0.11111111110000002  0.16687786179999997  1.0000
  Zn  Zn2       1.0  0.11111111110000002  0.22222222220000004  0.0002111951  1.0000
  O   O1        1.0  0.22222222220000004  0.11111111110000002  0.29322547149999995  1.0000
  O   O2        1.0  0.11111111110000002  0.22222222220000004  0.1265588049  1.0000
  Zn  Zn3       1.0  0.22222222220000004  0.11111111110000002  0.5002111951  1.0000
  Zn  Zn4       1.0  0.11111111110000002  0.22222222220000004  0.3335445285  1.0000
  O   O3        1.0  0.22222222220000004  0.11111111110000002  0.6265588049  1.0000
  O   O4        1.0  0.11111111110000002  0.22222222220000004  0.45989213819999997  1.0000
  Zn  Zn5       1.0  0.22222222220000004  0.11111111110000002  0.8335445284999999  1.0000
  Zn  Zn6       1.0  0.11111111110000002  0.22222222220000004  0.6668778618  1.0000
  O   O5        1.0  0.22222222220000004  0.11111111110000002  0.9598921381999999  1.0000
  O   O6        1.0  0.11111111110000002  0.22222222220000004  0.7932254714999999  1.0000
  Zn  Zn7       1.0  0.22222222220000004  0.4444444444000001  0.16687786179999997  1.0000
  Zn  Zn8       1.0  0.11111111110000002  0.5555555556  0.0002111951  1.0000
  O   O7        1.0  0.22222222220000004  0.4444444444000001  0.29322547149999995  1.0000
  O   O8        1.0  0.11111111110000002  0.5555555556  0.1265588049  1.0000
  Zn  Zn9       1.0  0.22222222220000004  0.4444444444000001  0.5002111951  1.0000
  Zn  Zn10      1.0  0.11111111110000002  0.5555555556  0.3335445285  1.0000
  O   O9        1.0  0.22222222220000004  0.4444444444000001  0.6265588049  1.0000
  O   O10       1.0  0.11111111110000002  0.5555555556  0.45989213819999997  1.0000
  Zn  Zn11      1.0  0.22222222220000004  0.4444444444000001  0.8335445284999999  1.0000
  Zn  Zn12      1.0  0.11111111110000002  0.5555555556  0.6668778618  1.0000
  O   O11       1.0  0.22222222220000004  0.4444444444000001  0.9598921381999999  1.0000
  O   O12       1.0  0.11111111110000002  0.5555555556  0.7932254714999999  1.0000
  Zn  Zn13      1.0  0.22222222220000004  0.7777777778  0.16687786179999997  1.0000
  Zn  Zn14      1.0  0.11111111110000005  0.8888888889  0.0002111951  1.0000
  O   O13       1.0  0.22222222220000004  0.7777777778  0.29322547149999995  1.0000
  O   O14       1.0  0.11111111110000005  0.8888888889  0.1265588049  1.0000
  Zn  Zn15      1.0  0.22222222220000004  0.7777777778  0.5002111951  1.0000
  Zn  Zn16      1.0  0.11111111110000005  0.8888888889  0.3335445285  1.0000
  O   O15       1.0  0.22222222220000004  0.7777777778  0.6265588049  1.0000
  O   O16       1.0  0.11111111110000005  0.8888888889  0.45989213819999997  1.0000
  Zn  Zn17      1.0  0.22222222220000004  0.7777777778  0.8335445284999999  1.0000
  Zn  Zn18      1.0  0.11111111110000005  0.8888888889  0.6668778618  1.0000
  O   O17       1.0  0.22222222220000004  0.7777777778  0.9598921381999999  1.0000
  O   O18       1.0  0.11111111110000005  0.8888888889  0.7932254714999999  1.0000
  Zn  Zn19      1.0  0.5555555556  0.11111111110000002  0.16687786179999997  1.0000
  Zn  Zn20      1.0  0.4444444444000001  0.22222222220000004  0.0002111951  1.0000
  O   O19       1.0  0.5555555556  0.11111111110000002  0.29322547149999995  1.0000
  O   O20       1.0  0.4444444444000001  0.22222222220000004  0.1265588049  1.0000
  Zn  Zn21      1.0  0.5555555556  0.11111111110000002  0.5002111951  1.0000
  Zn  Zn22      1.0  0.4444444444000001  0.22222222220000004  0.3335445285  1.0000
  O   O21       1.0  0.5555555556  0.11111111110000002  0.6265588049  1.0000
  O   O22       1.0  0.4444444444000001  0.22222222220000004  0.45989213819999997  1.0000
  Zn  Zn23      1.0  0.5555555556  0.11111111110000002  0.8335445284999999  1.0000
  Zn  Zn24      1.0  0.4444444444000001  0.22222222220000004  0.6668778618  1.0000
  O   O23       1.0  0.5555555556  0.11111111110000002  0.9598921381999999  1.0000
  O   O24       1.0  0.4444444444000001  0.22222222220000004  0.7932254714999999  1.0000
  Zn  Zn25      1.0  0.5555555556  0.4444444444000001  0.16687786179999997  1.0000
  Zn  Zn26      1.0  0.4444444444000001  0.5555555556  0.0002111951  1.0000
  O   O25       1.0  0.5555555556  0.4444444444000001  0.29322547149999995  1.0000
  O   O26       1.0  0.4444444444000001  0.5555555556  0.1265588049  1.0000
  Zn  Zn27      1.0  0.5555555556  0.4444444444000001  0.5002111951  1.0000
  Zn  Zn28      1.0  0.4444444444000001  0.5555555556  0.3335445285  1.0000
  O   O27       1.0  0.5555555556  0.4444444444000001  0.6265588049  1.0000
  O   O28       1.0  0.4444444444000001  0.5555555556  0.45989213819999997  1.0000
  Zn  Zn29      1.0  0.5555555556  0.4444444444000001  0.8335445284999999  1.0000
  Zn  Zn30      1.0  0.4444444444000001  0.5555555556  0.6668778618  1.0000
  O   O29       1.0  0.5555555556  0.4444444444000001  0.9598921381999999  1.0000
  O   O30       1.0  0.4444444444000001  0.5555555556  0.7932254714999999  1.0000
  Zn  Zn31      1.0  0.5555555556  0.7777777778  0.16687786179999997  1.0000
  Zn  Zn32      1.0  0.4444444444000001  0.8888888889  0.0002111951  1.0000
  O   O31       1.0  0.5555555556  0.7777777778  0.29322547149999995  1.0000
  O   O32       1.0  0.4444444444000001  0.8888888889  0.1265588049  1.0000
  Zn  Zn33      1.0  0.5555555556  0.7777777778  0.5002111951  1.0000
  Zn  Zn34      1.0  0.4444444444000001  0.8888888889  0.3335445285  1.0000
  O   O33       1.0  0.5555555556  0.7777777778  0.6265588049  1.0000
  O   O34       1.0  0.4444444444000001  0.8888888889  0.45989213819999997  1.0000
  Zn  Zn35      1.0  0.5555555556  0.7777777778  0.8335445284999999  1.0000
  Zn  Zn36      1.0  0.4444444444000001  0.8888888889  0.6668778618  1.0000
  O   O35       1.0  0.5555555556  0.7777777778  0.9598921381999999  1.0000
  O   O36       1.0  0.4444444444000001  0.8888888889  0.7932254714999999  1.0000
  Zn  Zn37      1.0  0.8888888889000001  0.11111111110000002  0.16687786179999997  1.0000
  Zn  Zn38      1.0  0.7777777778  0.22222222220000004  0.0002111951  1.0000
  O   O37       1.0  0.8888888889000001  0.11111111110000002  0.29322547149999995  1.0000
  O   O38       1.0  0.7777777778  0.22222222220000004  0.1265588049  1.0000
  Zn  Zn39      1.0  0.8888888889000001  0.11111111110000002  0.5002111951  1.0000
  Zn  Zn40      1.0  0.7777777778  0.22222222220000004  0.3335445285  1.0000
  O   O39       1.0  0.8888888889000001  0.11111111110000002  0.6265588049  1.0000
  O   O40       1.0  0.7777777778  0.22222222220000004  0.45989213819999997  1.0000
  Zn  Zn41      1.0  0.8888888889000001  0.11111111110000002  0.8335445284999999  1.0000
  Zn  Zn42      1.0  0.7777777778  0.22222222220000004  0.6668778618  1.0000
  O   O41       1.0  0.8888888889000001  0.11111111110000002  0.9598921381999999  1.0000
  O   O42       1.0  0.7777777778  0.22222222220000004  0.7932254714999999  1.0000
  Zn  Zn43      1.0  0.8888888889000001  0.4444444444000001  0.16687786179999997  1.0000
  Zn  Zn44      1.0  0.7777777778  0.5555555556  0.0002111951  1.0000
  O   O43       1.0  0.8888888889000001  0.4444444444000001  0.29322547149999995  1.0000
  O   O44       1.0  0.7777777778  0.5555555556  0.1265588049  1.0000
  Zn  Zn45      1.0  0.8888888889000001  0.4444444444000001  0.5002111951  1.0000
  Zn  Zn46      1.0  0.7777777778  0.5555555556  0.3335445285  1.0000
  O   O45       1.0  0.8888888889000001  0.4444444444000001  0.6265588049  1.0000
  O   O46       1.0  0.7777777778  0.5555555556  0.45989213819999997  1.0000
  Zn  Zn47      1.0  0.8888888889000001  0.4444444444000001  0.8335445284999999  1.0000
  Zn  Zn48      1.0  0.7777777778  0.5555555556  0.6668778618  1.0000
  O   O47       1.0  0.8888888889000001  0.4444444444000001  0.9598921381999999  1.0000
  O   O48       1.0  0.7777777778  0.5555555556  0.7932254714999999  1.0000
  Zn  Zn49      1.0  0.8888888889000001  0.7777777778  0.16687786179999997  1.0000
  Zn  Zn50      1.0  0.7777777778  0.8888888889  0.0002111951  1.0000
  O   O49       1.0  0.8888888889000001  0.7777777778  0.29322547149999995  1.0000
  O   O50       1.0  0.7777777778  0.8888888889  0.1265588049  1.0000
  Zn  Zn51      1.0  0.8888888889000001  0.7777777778  0.5002111951  1.0000
  Zn  Zn52      1.0  0.7777777778  0.8888888889  0.3335445285  1.0000
  O   O51       1.0  0.8888888889000001  0.7777777778  0.6265588049  1.0000
  O   O52       1.0  0.7777777778  0.8888888889  0.45989213819999997  1.0000
  Zn  Zn53      1.0  0.8888888889000001  0.7777777778  0.8335445284999999  1.0000
  Zn  Zn54      1.0  0.7777777778  0.8888888889  0.6668778618  1.0000
  O   O53       1.0  0.8888888889000001  0.7777777778  0.9598921381999999  1.0000
  O   O54       1.0  0.7777777778  0.8888888889  0.7932254714999999  1.0000
