data_image0
_chemical_formula_structural       Zn2O2Zn2O2Zn2O2Zn2O2Zn2O2Zn2O2Zn2O2Zn2O2Zn2O2Zn2O2Zn2O2Zn2O2
_chemical_formula_sum              "Zn24 O24"
_cell_length_a       9.809075145
_cell_length_b       6.5393834299615765
_cell_length_c       10.556908284
_cell_angle_alpha    90.0
_cell_angle_beta     90.0
_cell_angle_gamma    119.9999999900773

_space_group_name_H-M_alt    "P 1"
_space_group_IT_number       1

loop_
  _space_group_symop_operation_xyz
  'x, y, z'

loop_
  _atom_site_type_symbol
  _atom_site_label
  _atom_site_symmetry_multiplicity
  _atom_site_fract_x
  _atom_site_fract_y
  _atom_site_fract_z
  _atom_site_occupancy
  Zn  Zn1       1.0  0.22222222220000004  0.1666666666  0.2503167927  1.0000
  Zn  Zn2       1.0  0.11111111110000002  0.3333333333  0.0003167927  1.0000
  O   O1        1.0  0.22222222220000004  0.1666666666  0.4398382073  1.0000
  O   O2        1.0  0.11111111110000002  0.3333333333  0.1898382073  1.0000
  Zn  Zn3       1.0  0.22222222220000004  0.1666666666  0.7503167926999998  1.0000
  Zn  Zn4       1.0  0.11111111110000002  0.3333333333  0.5003167927  1.0000
  O   O3        1.0  0.22222222220000004  0.1666666666  0.9398382072999999  1.0000
  O   O4        1.0  0.11111111110000002  0.3333333333  0.6898382072999999  1.0000
  Zn  Zn5       1.0  0.22222222220000004  0.6666666666  0.2503167927  1.0000
  Zn  Zn6       1.0  0.11111111110000002  0.8333333334  0.0003167927  1.0000
  O   O5        1.0  0.22222222220000004  0.6666666666  0.4398382073  1.0000
  O   O6        1.0  0.11111111110000002  0.8333333334  0.1898382073  1.0000
  Zn  Zn7       1.0  0.22222222220000004  0.6666666666  0.7503167926999998  1.0000
  Zn  Zn8       1.0  0.11111111110000002  0.8333333334  0.5003167927  1.0000
  O   O7        1.0  0.22222222220000004  0.6666666666  0.9398382072999999  1.0000
  O   O8        1.0  0.11111111110000002  0.8333333334  0.6898382072999999  1.0000
  Zn  Zn9       1.0  0.5555555556  0.1666666666  0.2503167927  1.0000
  Zn  Zn10      1.0  0.4444444444000001  0.3333333333  0.0003167927  1.0000
  O   O9        1.0  0.5555555556  0.1666666666  0.4398382073  1.0000
  O   O10       1.0  0.4444444444000001  0.3333333333  0.1898382073  1.0000
  Zn  Zn11      1.0  0.5555555556  0.1666666666  0.7503167926999998  1.0000
  Zn  Zn12      1.0  0.4444444444000001  0.3333333333  0.5003167927  1.0000
  O   O11       1.0  0.5555555556  0.1666666666  0.9398382072999999  1.0000
  O   O12       1.0  0.4444444444000001  0.3333333333  0.6898382072999999  1.0000
  Zn  Zn13      1.0  0.5555555556  0.6666666666  0.2503167927  1.0000
  Zn  Zn14      1.0  0.4444444444000001  0.8333333334  0.0003167927  1.0000
  O   O13       1.0  0.5555555556  0.6666666666  0.4398382073  1.0000
  O   O14       1.0  0.4444444444000001  0.8333333334  0.1898382073  1.0000
  Zn  Zn15      1.0  0.5555555556  0.6666666666  0.7503167926999998  1.0000
  Zn  Zn16      1.0  0.4444444444000001  0.8333333334  0.5003167927  1.0000
  O   O15       1.0  0.5555555556  0.6666666666  0.9398382072999999  1.0000
  O   O16       1.0  0.4444444444000001  0.8333333334  0.6898382072999999  1.0000
  Zn  Zn17      1.0  0.8888888889000001  0.1666666666  0.2503167927  1.0000
  Zn  Zn18      1.0  0.7777777778000001  0.3333333333  0.0003167927  1.0000
  O   O17       1.0  0.8888888889000001  0.1666666666  0.4398382073  1.0000
  O   O18       1.0  0.7777777778000001  0.3333333333  0.1898382073  1.0000
  Zn  Zn19      1.0  0.8888888889000001  0.1666666666  0.7503167926999998  1.0000
  Zn  Zn20      1.0  0.7777777778000001  0.3333333333  0.5003167927  1.0000
  O   O19       1.0  0.8888888889000001  0.1666666666  0.9398382072999999  1.0000
  O   O20       1.0  0.7777777778000001  0.3333333333  0.6898382072999999  1.0000
  Zn  Zn21      1.0  0.8888888889000001  0.6666666666  0.2503167927  1.0000
  Zn  Zn22      1.0  0.7777777778  0.8333333334  0.0003167927  1.0000
  O   O21       1.0  0.8888888889000001  0.6666666666  0.4398382073  1.0000
  O   O22       1.0  0.7777777778  0.8333333334  0.1898382073  1.0000
  Zn  Zn23      1.0  0.8888888889000001  0.6666666666  0.7503167926999998  1.0000
  Zn  Zn24      1.0  0.7777777778  0.8333333334  0.5003167927  1.0000
  O   O23       1.0  0.8888888889000001  0.6666666666  0.9398382072999999  1.0000
  O   O24       1.0  0.7777777778  0.8333333334  0.6898382072999999  1.0000
