data_image0
_chemical_formula_structural       Zn2O2
_chemical_formula_sum              "Zn2 O2"
_cell_length_a       3.269691715
_cell_length_b       3.2696917149807883
_cell_length_c       5.278454142
_cell_angle_alpha    90.0
_cell_angle_beta     90.0
_cell_angle_gamma    119.9999999900773

_space_group_name_H-M_alt    "P 1"
_space_group_IT_number       1

loop_
  _space_group_symop_operation_xyz
  'x, y, z'

loop_
  _atom_site_type_symbol
  _atom_site_label
  _atom_site_symmetry_multiplicity
  _atom_site_fract_x
  _atom_site_fract_y
  _atom_site_fract_z
  _atom_site_occupancy
  Zn  Zn1       1.0  0.6666666666999999  0.3333333333  0.5006335854  1.0000
  Zn  Zn2       1.0  0.3333333333  0.6666666667  0.0006335854  1.0000
  O   O1        1.0  0.6666666666999999  0.3333333333  0.8796764146  1.0000
  O   O2        1.0  0.3333333333  0.6666666667  0.3796764146  1.0000
